/*--------------------------------*- C++ -*----------------------------------*\
  =========                 |
  \\      /  F ield         | OpenFOAM: The Open Source CFD Toolbox
   \\    /   O peration     | Website:  https://openfoam.org
    \\  /    A nd           | Version:  12
     \\/     M anipulation  |
\*---------------------------------------------------------------------------*/
FoamFile
{
    format      ascii;
    class       dictionary;
    location    "constant";
    object      initialConditions;
}
// * * * * * * * * * * * * * * * * * * * * * * * * * * * * * * * * * * * * * //

constantProperty pressure;

fractionBasis  mole;

fractions
{
    H2              2; // Stoichiometric proportions
    N2              3.7599;
    O2              1;  //'H2', 'O2:1, N2:3.7599, AR:')
    AR              0.0001;
}

p               202650.0; 

T               1000;


// ************************************************************************* //
