/*--------------------------------*- C++ -*----------------------------------*\
  =========                 |
  \\      /  F ield         | OpenFOAM: The Open Source CFD Toolbox
   \\    /   O peration     | Website:  https://openfoam.org
    \\  /    A nd           | Version:  12
     \\/     M anipulation  |
\*---------------------------------------------------------------------------*/
FoamFile
{
    format      ascii;
    class       dictionary;
    location    "system";
    object      controlDict;
}
// * * * * * * * * * * * * * * * * * * * * * * * * * * * * * * * * * * * * * //

application     foamRun;

solver          multicomponentFluid;

startFrom       latestTime;

startTime       0;

stopAt          endTime;

endTime         0.5;

deltaT          1e-6;

writeControl    adjustableRunTime;

writeInterval   5e-4;

purgeWrite      3;

writeFormat     ascii;

writePrecision  6;

writeCompression off;

timeFormat      general;

timePrecision   6;

runTimeModifiable true;

adjustTimeStep  yes;

maxCo           0.3;

libs (
    "libcombustionModelsPoliMi.so" 
    "libfvModelsPoliMi.so" 
    "libfieldFunctionObjectsPoliMi.so"
    "liblagrangianFunctionObjectsPoliMi.so"
    );

functions
{
    // axial line
    axialLine
    {
        type sets;
        libs ("libsampling.so");

        writeControl  adjustableRunTime;
        writeInterval 1e-3; 

        fields (T H O H2 O2 OH H2O N2 N NO HO2 H2O2 AR OH* HE );

        interpolationScheme cellPoint;
        setFormat raw;

        sets
        (
            line1
            {
                type    lineUniform;
                axis    x;
                start   (0 5e-4 5e-4); 
                end     (50e-3 5e-4 5e-4); 
                nPoints 10000;
            }
        );
    }
    clouds
    {
        type            fvModel;
        #includeModel   clouds
        (
            name=fvModel,
            clouds=
            (
                Cloud
            )
        );
    }

    getEulerianFields
    {
        type                getEulerianFields;

        writeControl        adjustableRunTime;
        writeInterval       1e-4;
        
        clouds              (Cloud);
        speciesList         (H O H2 O2 OH H2O N2 N NO HO2 H2O2 AR OH* HE);
    }
}

// ************************************************************************* //
