ELEMENTS
H O N AR HE
END
SPECIES
H  O  H2  O2  OH  H2O  N2  N  NO  HO2  H2O2  AR  OH*  HE
END
REACTIONS CAL/MOLE 
H2 + M <=> 2 H + M         4.570000000000001e+19 -1.4 104380.0
AR/0.000E+00/ H2/2.500E+00/ H2O/1.200E+01/
DUPLICATE
H2 + AR <=> 2 H + AR       5.840000000000001e+18 -1.1 104380.0
H2 + O2 <=> 2 OH           2500000000000.0005 0.0 39000.0
2 H + H <=> H2 + H         3200000000000000.5 0.0 0.0
DUPLICATE
H + HO2 <=> H2O + O        30000000000000.004 0.0 1720.0
H2 + O <=> H + OH          50800.000000000015 2.67 6290.0
2 O + M <=> O2 + M         6160000000000001.0 -0.5 0.0
AR/0.000E+00/ H2/2.500E+00/ H2O/1.200E+01/
2 O + AR <=> O2 + AR       18900000000000.004 0.0 -1788.0
H + O2 <=> O + OH          191000000000000.03 0.0 16439.0
H + O2 (+M) <=> HO2 (+M)   1480000000000.0002 0.6 0.0
LOW /3.482000000000001e+16 -0.411 -1115.0/
TROE /0.5 1E-30 1E+30/
AR/0.000E+00/ H2/2.500E+00/ H2O/1.200E+01/
H + O2 (+AR) <=> HO2 (+AR) 14800000000000.002 0.6 0.0
LOW /1490000000000000.2 0.0 -1000.0/
TROE /0.45 1E-30 1E+30/
H + O + M <=> OH + M       4.710000000000001e+18 -1.0 0.0
AR/7.500E-01/ H2/2.500E+00/ H2O/1.200E+01/
H2 + OH <=> H + H2O        216000000.00000003 1.51 3430.0
H2O + O <=> 2 OH           2970000.0000000005 2.02 13400.000000000002
H2O2 (+M) <=> 2 OH (+M)    295000000000000.0 0.0 48430.0
LOW /1.2000000000000002e+17 0.0 45500.0/
TROE /0.5 1E-90 1E+90/
AR/0.000E+00/ H2/2.500E+00/ H2O/1.200E+01/
H2O2 (+AR) <=> 2 OH (+AR)  295000000000000.0 0.0 48430.0
LOW /1.9000000000000004e+16 0.0 43000.0/
TROE /0.5 1E-29 1E+31/
H + OH + M <=> H2O + M     2.2100000000000003e+22 -2.0 0.0
AR/0.000E+00/ H2/2.500E+00/ H2O/1.200E+01/
H + OH + AR <=> H2O + AR   8.410000000000001e+21 -2.0 0.0
HO2 + O <=> O2 + OH        33000000000000.004 0.0 0.0
H + HO2 <=> H2 + O2        16600000000000.002 0.0 823.0
H + HO2 <=> 2 OH           70800000000000.02 0.0 295.0
HO2 + OH <=> H2O + O2      28900000000000.004 0.0 -497.0
2 HO2 <=> H2O2 + O2        420000000000000.06 0.0 11982.0
DUPLICATE
2 HO2 <=> H2O2 + O2        130000000000.00002 0.0 -1629.0
DUPLICATE
H2O2 + O <=> HO2 + OH      9550000.0 2.0 3970.0
H + H2O2 <=> H2O + OH      24000000000000.004 0.0 3970.0
H + H2O2 <=> H2 + HO2      48200000000000.01 0.0 7950.0
H2O2 + OH <=> H2O + HO2    1000000000000.0001 0.0 0.0
DUPLICATE
H2O2 + OH <=> H2O + HO2    580000000000000.1 0.0 9557.0
DUPLICATE
H + O + M <=> OH* + M      600000000000000.1 0.0 6940.0
AR + OH* <=> AR + OH       21700000000.000004 0.5 2060.0
H2O + OH* <=> H2O + OH     5920000000000.001 0.5 -861.0
H + OH* <=> H + OH         1500000000000.0002 0.5 0.0
H2 + OH* <=> H2 + OH       2950000000000.0005 0.5 -444.0
O2 + OH* <=> O2 + OH       2100000000000.0005 0.5 -482.0
O + OH* <=> O + OH         1500000000000.0002 0.5 0.0
OH + OH* <=> 2 OH          1500000000000.0002 0.5 0.0
OH* <=> OH                 1400000.0 0.0 0.0
N2 + O <=> N + NO          180000000000000.03 0.0 76100.0
N + O2 <=> NO + O          9000000000.000002 1.0 6500.0
NO + M <=> N + O + M       964000000000000.1 0.0 148300.0
N2/1.500E+00/ NO/3.000E+00/
2 NO <=> N2 + O2           300000000000.00006 0.0 65000.0
END
